55PasiveNets/source_VLN_Node.Txt

LINE-GROUND and LINE-LINE VOLTAGES BY BUS & NODE

Bus       Node    VLN (kV)   Angle      pu     Base kV    Node-Node   VLL (kV)  Angle      pu

SOURCEBUS 1       66.395 /_    0.0    9.2221    12.470        1-2        115 /_   30.0    9.2221
   -      2       66.395 /_ -120.0    9.2221    12.470        2-3        115 /_  -90.0    9.2221
   -      3       66.395 /_  120.0    9.2221    12.470        3-1        115 /_  150.0    9.2221
N0 ...... 1            0 /_    0.0         0    12.470        1-2          0 /_    0.0         0
   -      2            0 /_    0.0         0    12.470        2-3          0 /_    0.0         0
   -      3            0 /_    0.0         0    12.470        3-1          0 /_    0.0         0
   -      4            0 /_    0.0         0    12.470
N1 ...... 1            0 /_    0.0         0    12.470        1-2          0 /_    0.0         0
   -      2            0 /_    0.0         0    12.470        2-3          0 /_    0.0         0
   -      3            0 /_    0.0         0    12.470        3-1          0 /_    0.0         0
   -      4            0 /_    0.0         0    12.470
N2 ...... 1            0 /_    0.0         0    12.470        1-2          0 /_    0.0         0
   -      2            0 /_    0.0         0    12.470        2-3          0 /_    0.0         0
   -      3            0 /_    0.0         0    12.470        3-1          0 /_    0.0         0
   -      4            0 /_    0.0         0    12.470
